[TITLE]
prueba

[JUNCTIONS]
;ID              	Elev        	Demand      	Pattern         
 n223            	160.1       	0.0057      	                	;
 n225            	161.6       	0.0017      	                	;
 n226            	158.4       	0.0060      	                	;
 n229            	168.1       	0.0034      	                	;
 n231            	163.8       	0.0026      	                	;
 n227            	169.7       	0.0017      	                	;
 n230            	168         	0.0017      	                	;
 n221            	147         	0.0616      	                	;
 n228            	170.3       	0           	                	;
 n224            	157.9       	0.0086      	                	;
 n222            	145.4       	0.0297      	                	;
 n273            	56.3        	0.0081      	                	;
 n275            	49.9        	0.0198      	                	;
 n277            	37.1        	0.0020      	                	;
 n278            	37.9        	0.0100      	                	;
 n262            	92.8        	0.0221      	                	;
 n264            	102.6       	0.0306      	                	;
 nv261           	98.7        	0           	                	;
 n271            	75.2        	0.0091      	                	;
 n272            	81.6        	0.0091      	                	;
 n269            	89.6        	0.0389      	                	;
 n280            	39.8        	0.0234      	                	;
 nv279           	37.1        	0           	                	;
 n266            	112.9       	0.0963      	                	;
 n267            	82.2        	0.0274      	                	;
 n276            	35          	0.0060      	                	;
 n263            	86.7        	0.0122      	                	;
 n274            	52.5        	0.0217      	                	;
 n219            	148.5       	0.0049      	                	;
 n220            	175.4       	0.0188      	                	;
 n218            	158.9       	0.0531      	                	;
 n232            	152         	0.0119      	                	;
 n233            	139.3       	0.0371      	                	;
 n217            	220.1       	0.0113      	                	;
 n215            	220.2       	0.0247      	                	;
 nv216           	220.1       	0           	                	;
 n237            	139.1       	0.0259      	                	;
 n236            	151         	0           	                	;
 n234            	151.1       	0           	                	;
 n239            	125.8       	0.0517      	                	;
 n238            	130.4       	0.0130      	                	;
 n188            	177         	0.0365      	                	;
 n189            	175.3       	0.0304      	                	;
 n265            	110         	0.0251      	                	;
 n268            	96.3        	0.0623      	                	;
 n187            	232.1       	0.0122      	                	;
 n4              	340         	0.0127      	                	;
 n6              	316.7       	0.0142      	                	;
 n9              	311.6       	0.0514      	                	;
 n8              	312.4       	0.0887      	                	;
 n7              	333.3       	0.0098      	                	;
 n5              	344.1       	0.0044      	                	;
 nv250           	108.9       	0           	                	;
 n251            	108.2       	0.0194      	                	;
 n261            	98.7        	0.0234      	                	;
 nv251           	108.2       	0           	                	;
 n252            	94.4        	0.0238      	                	;
 n258            	96.6        	0.0108      	                	;
 n256            	99.3        	0.0054      	                	;
 n253            	106.5       	0.0200      	                	;
 n254            	110.5       	0.0068      	                	;
 n255            	106.3       	0           	                	;
 n259            	96.8        	0.0304      	                	;
 n260            	89.5        	0.0545      	                	;
 n257            	99.7        	0.0304      	                	;
 n270            	83.5        	0.0609      	                	;
 n212            	109.2       	0.0127      	                	;
 n214            	103.1       	0.0204      	                	;
 n241            	112.4       	0.0392      	                	;
 n197            	118.1       	0.0414      	                	;
 n195            	138.2       	0.0150      	                	;
 n202            	113.8       	0.0178      	                	;
 n206            	112.9       	0.0076      	                	;
 n204            	112.3       	0.0038      	                	;
 n249            	103         	0.0433      	                	;
 n242            	116.5       	0.0126      	                	;
 n244            	119.9       	0.0253      	                	;
 n245            	117.7       	0.0160      	                	;
 n240            	109.5       	0.0091      	                	;
 n207            	105.4       	0.0486      	                	;
 nv209           	101.3       	0           	                	;
 n193            	151.1       	0.0108      	                	;
 n190            	170.2       	0.0244      	                	;
 n213            	111.1       	0.0382      	                	;
 n208            	95.8        	0.0361      	                	;
 nv244           	119.9       	0           	                	;
 n246            	131.4       	0.361       	                	;
 n198            	121.4       	0.0214      	                	;
 n199            	132.2       	0.0138      	                	;
 n243            	126.7       	0.0282      	                	;
 n196            	137.6       	0.0166      	                	;
 n200            	122.8       	0.0190      	                	;
 nv246           	131.5       	0           	                	;
 n210            	95.7        	0.0038      	                	;
 n211            	93.5        	0.0104      	                	;
 n247            	143.6       	0.0658      	                	;
 nv203           	111         	0           	                	;
 n248            	148.2       	0.0373      	                	;
 n205            	113.1       	0.0076      	                	;
 n157            	207.7       	0.0213      	                	;
 n165            	194.2       	0.0594      	                	;
 n161            	196.2       	0.0080      	                	;
 n159            	195         	0.0107      	                	;
 n158            	197.8       	0.0107      	                	;
 n166            	168.3       	0.0107      	                	;
 n154            	214.1       	0           	                	;
 n155            	214.1       	0           	                	;
 n175            	115.5       	0.0274      	                	;
 n176            	114.4       	0.0274      	                	;
 n156            	214.1       	0           	                	;
 nv154           	214.1       	0           	                	;
 nv191           	198.8       	0           	                	;
 n192            	198.3       	0.0183      	                	;
 n191            	198.8       	0           	                	;
 n186            	223.3       	0.0194      	                	;
 n163            	196.7       	0.0053      	                	;
 n201            	121.3       	0.0152      	                	;
 n177            	120.3       	0.0213      	                	;
 n160            	189.1       	0.0107      	                	;
 n162            	189.5       	0.0053      	                	;
 n174            	122.7       	0.0059      	                	;
 nv178           	119.6       	0           	                	;
 n183            	147.9       	0.0670      	                	;
 n181            	152.5       	0.0571      	                	;
 n185            	137         	0.0167      	                	;
 n182            	130.4       	0.0723      	                	;
 n170            	145.5       	0.0320      	                	;
 n167            	129.5       	0           	                	;
 n168            	148         	0.0320      	                	;
 n171            	127.4       	0           	                	;
 nv172           	126.8       	0           	                	;
 n179            	145.9       	0           	                	;
 n180            	164.9       	0.0129      	                	;
 n169            	146.3       	0.0259      	                	;
 n173            	129.4       	0.0354      	                	;
 n184            	132.6       	0.0502      	                	;
 n95             	283         	0.0097      	                	;
 n96             	277.5       	0           	                	;
 n92             	302.3       	0           	                	;
 n94             	310.3       	0.0080      	                	;
 nv89            	300.7       	0           	                	;
 n89             	300.7       	0.0523      	                	;
 n2              	355.9       	0.00251     	                	;
 n84             	308         	0.0111      	                	;
 n102            	268.1       	0.0040      	                	;
 n103            	272.9       	0.0040      	                	;
 n99             	271.9       	0.0040      	                	;
 n100            	273.3       	0.0040      	                	;
 n153            	246.1       	0           	                	;
 nv153           	246.1       	0           	                	;
 n97             	271.7       	0.0040      	                	;
 n98             	273.8       	0.0040      	                	;
 n93             	308.9       	0.0080      	                	;
 n91             	307.7       	0.0107      	                	;
 n90             	301.4       	0           	                	;
 n3              	313.2       	0.0382      	                	;
 n152            	246.4       	0           	                	;
 n88             	302.2       	0.0297      	                	;
 n1              	355.9       	0.0084      	                	;
 n119            	269.8       	0           	                	;
 n120            	269.8       	0.0247      	                	;
 n121            	269.9       	0           	                	;
 n122            	269.9       	0           	                	;
 n101            	263.2       	0.0040      	                	;
 nv101           	263.2       	0           	                	;
 nv151           	273.3       	0           	                	;
 n118            	267.6       	0           	                	;
 n105            	266.1       	0.0040      	                	;
 n194            	152.7       	0.0127      	                	;
 n15             	264.6       	0           	                	;
 n14             	267.5       	0.0302      	                	;
 n55             	285.9       	0.0046      	                	;
 nv56            	315.3       	0           	                	;
 n19             	258.5       	0.0074      	                	;
 n20             	256.7       	0.0096      	                	;
 nv14'           	267.5       	0           	                	;
 n51             	271.3       	0.0068      	                	;
 n59             	340.8       	0.0095      	                	;
 n57             	323         	0.0143      	                	;
 n17             	264.6       	0           	                	;
 n54             	277.2       	0.0011      	                	;
 n11             	290.3       	0.0753      	                	;
 n12             	291.4       	0.0293      	                	;
 n58             	340.1       	0.0095      	                	;
 n21             	258.2       	0.0341      	                	;
 n16             	282.4       	0.0205      	                	;
 nv22            	271.1       	0           	                	;
 n52             	273.1       	0.0288      	                	;
 n18             	261.7       	0.0192      	                	;
 n23             	293.3       	0.0388      	                	;
 n10             	311.5       	0.0070      	                	;
 n53             	284.4       	0.0192      	                	;
 n35             	282.7       	0           	                	;
 n36             	281.7       	0.0084      	                	;
 n65             	249.8       	0.0538      	                	;
 n60             	236.3       	0.0628      	                	;
 n61             	239.2       	0.0192      	                	;
 nv78            	244.9       	0           	                	;
 n78             	244.9       	0           	                	;
 n73             	249         	0.0306      	                	;
 n62             	236.2       	0.0096      	                	;
 n63             	236.4       	0           	                	;
 n68             	260.9       	0.0067      	                	;
 n70             	252.1       	0.0799      	                	;
 n38             	308.4       	0.0704      	                	;
 nv39            	307.4       	0           	                	;
 n113            	280.9       	0.0040      	                	;
 n71             	248.9       	0           	                	;
 n72             	248.8       	0.0091      	                	;
 n25             	298.2       	0.0127      	                	;
 n27             	300.8       	0           	                	;
 nv24            	291.5       	0           	                	;
 n82             	264.1       	0.0223      	                	;
 n83             	274.7       	0.0386      	                	;
 nv41''          	296.8       	0           	                	;
 n86             	303.1       	0           	                	;
 n87             	302.8       	0           	                	;
 n50             	253.5       	0.1406      	                	;
 n64             	253.9       	0.0266      	                	;
 n115            	293.3       	0.0040      	                	;
 n114            	291.7       	0.0040      	                	;
 n107            	266.7       	0.0040      	                	;
 n74             	252.8       	0.0204      	                	;
 n75             	260.4       	0           	                	;
 n29             	300.3       	0.0063      	                	;
 n42             	279.9       	0.0223      	                	;
 nv83            	274.7       	0           	                	;
 nv33            	272.6       	0           	                	;
 n116            	295.6       	0.0040      	                	;
 n111            	275.7       	0.0040      	                	;
 n112            	266.6       	0.0040      	                	;
 n76             	254.7       	0.0445      	                	;
 n43             	273.9       	0           	                	;
 n44             	280.5       	0.0059      	                	;
 nv41'           	296.6       	0           	                	;
 n47             	273.3       	0.0079      	                	;
 nv76            	254.7       	0           	                	;
 n31             	301         	0.0367      	                	;
 n48             	266         	0.0129      	                	;
 n28             	295.3       	0.0251      	                	;
 n46             	285.5       	0.0059      	                	;
 n85             	304.8       	0           	                	;
 nv64            	253.9       	0           	                	;
 nv80            	244.5       	0           	                	;
 n79             	238.2       	0.0626      	                	;
 n40             	300.9       	0.0111      	                	;
 n41             	296.6       	0.0099      	                	;
 n80             	244.5       	0.0445      	                	;
 n104            	270.4       	0.0040      	                	;
 n34             	278.7       	0           	                	;
 n32             	311.1       	0.0222      	                	;
 n69             	265.3       	0.0067      	                	;
 n77             	245.5       	0.0122      	                	;
 n26             	305.5       	0.0382      	                	;
 n49             	283.4       	0.0765      	                	;
 n24             	291.5       	0.0217      	                	;
 n37             	283.1       	0.0084      	                	;
 nv41            	296.6       	0           	                	;
 n66             	232.8       	0.0409      	                	;
 n117            	291.4       	0           	                	;
 n106            	265.9       	0.0040      	                	;
 n108            	259         	0.0040      	                	;
 nv73            	249         	0           	                	;
 n30             	312.5       	0.0064      	                	;
 n45             	282.1       	0.0059      	                	;
 n126            	292.7       	0.0056      	                	;
 n127            	262.6       	0           	                	;
 n142            	262.4       	0.0063      	                	;
 n143            	258.5       	0           	                	;
 n139            	268.6       	0.0214      	                	;
 n138            	263.8       	0.0024      	                	;
 nv133''         	271.2       	0           	                	;
 n129            	274.8       	0.0168      	                	;
 n109            	256.9       	0.0040      	                	;
 n128            	272.3       	0           	                	;
 n136            	273.6       	0.0168      	                	;
 n137            	272.8       	0.0168      	                	;
 n132            	279.2       	0.0168      	                	;
 nv131           	270.9       	0           	                	;
 n130            	281         	0.0168      	                	;
 n146            	239.8       	0.0501      	                	;
 n147            	237         	0.0526      	                	;
 n148            	232.5       	0.0246      	                	;
 n134            	273         	0.0048      	                	;
 n135            	273.4       	0.0048      	                	;
 n144            	254.7       	0.0158      	                	;
 n123            	257.6       	0.0202      	                	;
 n124            	258.5       	0           	                	;
 n133            	272.1       	0.0056      	                	;
 n145            	253.2       	0.0301      	                	;
 n140            	268.1       	0.0143      	                	;
 n141            	267.2       	0.0158      	                	;
 n125            	254.8       	0.0101      	                	;
 n110            	257.9       	0.0040      	                	;
 nv148           	232.5       	0           	                	;
 n149            	233.1       	0.0304      	                	;
 n150            	231         	0.0186      	                	;
 n67             	258.7       	0.0270      	                	;
 n13             	327.7       	0.0656      	                	;
 n203            	111         	0           	                	;
 nv8             	312.4       	0           	                	;
 nv10            	311.5       	0           	                	;
 nv11            	290.3       	0           	                	;
 nv11'           	290.3       	0           	                	;
 nv14            	267.5       	0           	                	;
 nv51            	271.3       	0           	                	;
 nv51'           	271.3       	0           	                	;
 nv52            	273.1       	0           	                	;
 n56             	315.3       	0.0023      	                	;
 nv57            	323         	0           	                	;
 nv55            	285.9       	0           	                	;
 nv15            	264.6       	0           	                	;
 nv18            	261.7       	0           	                	;
 nv19            	258.5       	0           	                	;
 nv21            	258.2       	0           	                	;
 n22             	271.1       	0.0594      	                	;
 nv23            	293.3       	0           	                	;
 nv49            	283.4       	0           	                	;
 nv50            	253.5       	0           	                	;
 nv50'           	253.5       	0           	                	;
 nv50''          	253.5       	0           	                	;
 nv60            	236.3       	0           	                	;
 nv65            	249.8       	0           	                	;
 nv65'           	249.8       	0           	                	;
 nv25            	298.2       	0           	                	;
 nv27            	300.8       	0           	                	;
 nv29            	300.3       	0           	                	;
 n33             	272.6       	0.0453      	                	;
 nv35            	282.7       	0           	                	;
 n39             	307.4       	0.0742      	                	;
 nv84            	308         	0           	                	;
 nv72            	248.8       	0           	                	;
 nv79            	238.2       	0           	                	;
 n81             	244.3       	0.0099      	                	;
 nv81            	244.3       	0           	                	;
 nv74            	252.8       	0           	                	;
 nv87            	302.8       	0           	                	;
 nv43            	273.9       	0           	                	;
 nv47            	273.3       	0           	                	;
 nv90            	301.4       	0           	                	;
 nv95            	283         	0           	                	;
 nv96            	277.5       	0           	                	;
 nv97            	271.7       	0           	                	;
 nv99            	271.9       	0           	                	;
 nv101'          	263.2       	0           	                	;
 nv102           	268.1       	0           	                	;
 nv102'          	268.1       	0           	                	;
 nv107'          	266.7       	0           	                	;
 nv107           	266.7       	0           	                	;
 nv111           	275.7       	0           	                	;
 nv113           	280.9       	0           	                	;
 nv113'          	280.9       	0           	                	;
 nv121           	269.9       	0           	                	;
 nv120           	269.8       	0           	                	;
 nv119           	269.8       	0           	                	;
 nv122           	261.9       	0           	                	;
 nv123           	257.6       	0           	                	;
 nv125           	254.8       	0           	                	;
 nv129           	274.8       	0           	                	;
 nv129'          	274.8       	0           	                	;
 n131            	270.9       	0.0168      	                	;
 nv128           	272.3       	0           	                	;
 nv127           	262.6       	0           	                	;
 nv133           	272.1       	0           	                	;
 nv133'          	271.2       	0           	                	;
 nv134           	273         	0           	                	;
 nv135           	273.4       	0           	                	;
 nv142           	262.4       	0           	                	;
 nv145           	253.2       	0           	                	;
 nv150           	231         	0           	                	;
 n151            	273.3       	0           	                	;
 nv153'          	246.1       	0           	                	;
 nv186           	223.3       	0           	                	;
 nv186'          	223.3       	0           	                	;
 nv155           	214.1       	0           	                	;
 nv159           	195         	0           	                	;
 nv159'          	195         	0           	                	;
 nv161           	196.2       	0           	                	;
 nv161'          	196.2       	0           	                	;
 n164            	198.5       	0           	                	;
 nv167           	129.5       	0           	                	;
 n172            	126.8       	0.0177      	                	;
 nv174           	122.7       	0           	                	;
 nv175           	115.5       	0           	                	;
 nv178'          	119.6       	0           	                	;
 nv170           	145.5       	0           	                	;
 nv170'          	145.5       	0           	                	;
 nv181           	152.5       	0           	                	;
 nv183'          	147.9       	0           	                	;
 nv183           	147.9       	0           	                	;
 nv185           	137         	0           	                	;
 nv190           	170.2       	0           	                	;
 nv190'          	170.2       	0           	                	;
 nv188           	177         	0           	                	;
 nv187           	232.1       	0           	                	;
 n216            	220.1       	0           	                	;
 nv218           	158.9       	0           	                	;
 nv218'          	158.9       	0           	                	;
 nv219           	148.5       	0           	                	;
 nv235           	151.2       	0           	                	;
 n235            	151.2       	0           	                	;
 nv234           	151.1       	0           	                	;
 nv193           	151.1       	0           	                	;
 nv195           	138.2       	0           	                	;
 nv195'          	138.2       	0           	                	;
 nv197           	118.1       	0           	                	;
 nv198           	121.4       	0           	                	;
 nv200           	122.8       	0           	                	;
 nv202           	113.8       	0           	                	;
 nv202'          	113.8       	0           	                	;
 nv202''         	113.8       	0           	                	;
 nv204           	112.3       	0           	                	;
 nv204'          	112.3       	0           	                	;
 nv207           	105.4       	0           	                	;
 nv207'          	105.4       	0           	                	;
 n209            	101.3       	0.0142      	                	;
 nv210           	95.7        	0           	                	;
 nv208           	95.8        	0           	                	;
 nv212           	109.2       	0           	                	;
 nv214           	103.1       	0           	                	;
 nv249           	103         	0           	                	;
 nv241           	112.4       	0           	                	;
 n250            	108.9       	0           	                	;
 nv255'          	106.3       	0           	                	;
 nv255           	106.3       	0           	                	;
 nv256           	99.3        	0           	                	;
 nv258           	96.6        	0           	                	;
 nv269           	89.6        	0           	                	;
 nv271           	75.2        	0           	                	;
 nv275           	49.9        	0           	                	;
 n279            	37.1        	0           	                	;
 nv120'          	269.8       	0           	                	;
 n178            	119.6       	0.0057      	                	;
 nv221           	147         	0           	                	;
 ext1            	355.9       	0           	                	;

[RESERVOIRS]
;ID              	Head        	Pattern         

[TANKS]
;ID              	Elevation   	InitLevel   	MinLevel    	MaxLevel    	Diameter    	MinVol      	VolCurve
 TANK-2          	355.9       	3.35        	1           	3.6         	18.8        	0           	                	;
 TANK-1          	355.9       	7.38        	1           	10          	13.4        	0           	                	;

[PIPES]
;ID              	Node1           	Node2           	Length      	Diameter    	Roughness   	MinorLoss   	Status
 p232            	n223            	n225            	8.3         	81          	0.0015      	0           	Open  	;< 1995
 p233            	n225            	n226            	154.3       	57          	0.0015      	0           	Open  	;< 1995
 p238            	n229            	n231            	40.2        	57          	0.0015      	0           	Open  	;< 1995
 p234            	n225            	n227            	72.3        	81          	0.0015      	0           	Open  	;< 1995
 p237            	n229            	n230            	8           	57          	0.0015      	0           	Open  	;< 1995
 p230            	nv221           	n223            	87.2        	81          	0.0015      	0           	Open  	;< 1995
 p235            	n227            	n228            	26.4        	81          	0.0015      	0           	Open  	;< 1995
 p231            	n223            	n224            	158.9       	57          	0.0015      	0           	Open  	;< 1995
 p236            	n227            	n229            	37.2        	57          	0.0015      	0           	Open  	;< 1995
 p229            	n221            	n222            	225.2       	79          	0.007       	0           	Open  	;< 1995
 p283            	n273            	n275            	114         	81          	0.0015      	0           	Open  	;1997
 p286            	n277            	n278            	63.3        	81          	0.0015      	0           	Open  	;1997
 p272            	n262            	n264            	137.3       	81          	0.0015      	0           	Open  	;2002
 p270            	nv261           	n262            	233.2       	81          	0.0015      	0           	Open  	;2002
 p285            	n275            	n277            	275.7       	81          	0.0015      	0           	Open  	;1997
 p280            	nv271           	n272            	71.4        	57          	0.0015      	0           	Open  	;< 1995